Version 4
SHEET 1 880 680
WIRE 176 144 144 144
WIRE -240 160 -304 160
WIRE -128 160 -176 160
WIRE 80 160 -128 160
WIRE -128 176 -128 160
WIRE 192 176 144 176
WIRE 80 192 48 192
WIRE 192 208 144 208
WIRE -304 224 -304 160
WIRE -800 256 -800 224
WIRE -672 256 -672 224
WIRE -128 272 -128 256
WIRE 48 288 48 192
WIRE 192 288 192 208
WIRE 192 288 48 288
WIRE -304 320 -304 304
WIRE -800 352 -800 336
WIRE -672 352 -672 336
FLAG 176 144 Vcc
FLAG -304 320 0
FLAG -672 352 0
FLAG -672 224 Vcc
FLAG -800 352 0
FLAG -800 224 Vee
FLAG 192 176 Vee
FLAG -128 272 0
SYMBOL AutoGenerated\\TL08X 112 176 R0
SYMATTR InstName U1
SYMBOL voltage -304 208 R0
WINDOW 123 0 0 Left 0
WINDOW 39 0 0 Left 0
SYMATTR InstName V1
SYMATTR Value SINE(1.65 1.65 50)
SYMBOL voltage -672 240 R0
WINDOW 123 0 0 Left 0
WINDOW 39 0 0 Left 0
SYMATTR InstName V2
SYMATTR Value 5
SYMBOL voltage -800 240 R0
WINDOW 123 0 0 Left 0
WINDOW 39 0 0 Left 0
SYMATTR InstName V3
SYMATTR Value -5
SYMBOL cap -176 144 R90
WINDOW 0 0 32 VBottom 2
WINDOW 3 32 32 VTop 2
SYMATTR InstName C1
SYMATTR Value 1µ
SYMBOL res -144 160 R0
SYMATTR InstName R1
SYMATTR Value 500k
TEXT 400 176 Left 2 !.tran 0 1 0 10u
